67
*****
Ca         6.41900        8.21900       -3.25200
Nb         7.20200        7.54100       -4.12000
Ca         7.15400        6.19000       -4.11400
Ca         6.32100        5.55600       -3.16700
Ca         5.56300        6.38200       -2.34800
Nb         5.55800        7.72700       -2.33600
Na         4.78900        5.53400       -1.59600
*          5.14000        4.25400       -1.94400
Nd         6.07200        4.22800       -2.87600
*          3.65600        5.93700       -0.79000
*          3.67700        5.61300        0.72700
*          2.28400        5.00900        1.00700
*          1.49600        5.28900       -0.27400
Os         2.47800        5.30000       -1.32900
*          0.73000        6.62100       -0.30600
*          0.04600        6.75800       -1.55200
Os         1.60600        5.48800        2.15800
*          2.18900        5.13700        3.61700
O          3.38700        4.24800        3.63800
*          2.47400        6.60300        4.19800
Os         0.91500        4.62500        4.47500
*          1.17500        4.28900        5.84000
*         -0.06900        3.85600        6.64100
*         -0.78000        2.59600        6.12800
*         -2.27000        2.94600        6.16300
*         -2.34200        4.29800        6.88000
Os        -1.04600        4.91300        6.71900
Na        -2.72200        4.34600        8.28200
*         -3.45200        5.38300        8.82600
Nd        -3.71800        5.20000       10.10100
Cd        -3.13100        4.00100       10.39800
*         -2.51200        3.44700        9.29500
*         -1.85500        2.25900        9.22300
Cd        -1.81300        1.61800       10.36800
N         -2.39700        2.07800       11.53100
C         -3.08800        3.27500       11.64900
O         -3.58800        3.63300       12.70900
Nh        -1.17500        0.42800       10.45100
*         -3.14000        1.92800        6.63800
*         -0.46000        1.46200        6.94000
*          3.92500        6.75400        1.56200
Nh         7.91500        5.50000       -5.04300
*          6.49100        9.30200       -3.30800
*          4.66200        3.38200       -1.51900
*          3.53000        7.01600       -0.93600
*          4.45400        4.87500        0.95700
*          2.39600        3.92000        1.09300
*          0.79300        4.47500       -0.48500
*          1.40000        7.48100       -0.22000
*         -0.01300        6.67800        0.49200
Ho         0.70400        6.63400       -2.26200
Ho         3.29200        6.96200        3.80100
*          1.61000        5.17100        6.32500
*          1.91500        3.48100        5.86400
*          0.27200        3.67900        7.67000
*         -0.47800        2.35000        5.10500
*         -2.57100        3.13000        5.12400
*         -3.07000        4.93000        6.35500
*         -3.76400        6.24100        8.24300
*         -2.30800        1.55800       12.38800
*         -0.95700       -0.02200        9.56800
*         -1.44500       -0.22100       11.18000
Ho        -2.85700        1.69100        7.54400
Ho        -0.80700        1.64300        7.83700
Ho         3.45000        7.52400        1.19900
*          8.67800        6.04700       -5.41400
*          8.07900        4.52800       -4.81200
