15

C         -2.31085       -0.09507       -0.00117
N         -1.52126       -1.14635       -0.01307
C         -0.25069       -0.63467       -0.00923
N          0.88150       -1.35807       -0.01391
C          1.97743       -0.58886       -0.00485
N          2.05131        0.76016        0.01089
C          0.90777        1.46493        0.02621
C         -0.27077        0.74959        0.00540
N         -1.59821        1.07208        0.00881
N          0.98320        2.83564        0.08295
H         -3.39252       -0.11688        0.00160
H          2.92732       -1.11463       -0.00813
H         -1.98512        2.00521        0.01985
H          0.18936        3.42475       -0.09417
H          1.91500        3.20955       -0.04654
