16

C         -2.24529       -0.10839       -0.00066
N         -1.47714       -1.18261       -0.00166
C         -0.21896       -0.68098       -0.00767
C         -0.19661        0.67866       -0.01190
N         -1.50829        1.05144       -0.00537
C          1.00064        1.45120       -0.01336
O          0.99274        2.67748       -0.02268
N          2.15384        0.68518        0.01234
C          2.06046       -0.61388        0.02909
N          0.92036       -1.36931       -0.00276
N          3.19291       -1.35449        0.13139
H         -3.32780       -0.10269        0.00396
H         -1.86152        1.99997       -0.00141
H          0.93658       -2.37503        0.04322
H          3.20439       -2.32078       -0.15855
H          4.05203       -0.83962       -0.03180
