15

C          2.65669        1.00352        0.03959
C          1.19866        0.68624        0.00824
C          0.22247        1.60236       -0.01047
N         -1.09443        1.23888       -0.02741
C         -1.52345       -0.05978       -0.02204
O         -2.71462       -0.35000       -0.02833
N         -0.53852       -1.00453       -0.00897
C          0.80462       -0.74866        0.00092
O          1.63876       -1.64784        0.00435
H          3.12016        0.58705        0.93994
H          3.16123        0.58587       -0.83761
H          2.83577        2.08398        0.04368
H          0.42459        2.66910       -0.00917
H         -1.82462        1.94214       -0.03789
H         -0.82664       -1.96978       -0.00998
