12

C          1.17274       -1.20071       -0.01142
C         -0.02669       -1.78665       -0.00149
N         -1.17138       -1.04044        0.01101
C         -1.18433        0.32914        0.01209
O         -2.23066        0.96837        0.02141
N          0.04265        0.93040        0.00235
C          1.24155        0.27470       -0.00643
O          2.32094        0.85452       -0.00968
H          2.10554       -1.74765       -0.02214
H         -0.14555       -2.86535       -0.00320
H         -2.08102       -1.48830        0.01895
H          0.06222        1.93762        0.00529
